<?xml version="1.0" encoding="UTF-8"?>

<!-- generated on 2024-10-07 13:45:09 by Eclipse SUMO netedit Version 1.19.0
<configuration xmlns:xsi="http://www.w3.org/2001/XMLSchema-instance" xsi:noNamespaceSchemaLocation="http://sumo.dlr.de/xsd/neteditConfiguration.xsd">

    <input>
        <sumo-net-file value="C:\Users\tal\OneDrive - Technion\Studies\Eyal Project\cfg_files_VSL\VSL.net.xml"/>
    </input>

    <output>
        <output-file value="C:\Users\tal\OneDrive - Technion\Studies\Eyal Project\cfg_files_VSL\VSL.net.xml"/>
    </output>

    <processing>
        <geometry.min-radius.fix.railways value="false"/>
        <geometry.max-grade.fix value="false"/>
        <offset.disable-normalization value="true"/>
        <lefthand value="0"/>
    </processing>

    <junctions>
        <no-turnarounds value="true"/>
        <junctions.corner-detail value="5"/>
        <junctions.limit-turn-speed value="5.50"/>
        <rectangular-lane-cut value="0"/>
    </junctions>

    <pedestrian>
        <walkingareas value="0"/>
    </pedestrian>

</configuration>
-->

<net version="1.16" junctionCornerDetail="5" limitTurnSpeed="5.50" xmlns:xsi="http://www.w3.org/2001/XMLSchema-instance" xsi:noNamespaceSchemaLocation="http://sumo.dlr.de/xsd/net_file.xsd">

    <location netOffset="0.00,0.00" convBoundary="0.00,-150.00,8500.00,0.00" origBoundary="-10000000000.00,-10000000000.00,10000000000.00,10000000000.00" projParameter="!"/>

    <edge id=":J2_0" function="internal">
        <lane id=":J2_0_0" index="0" speed="22.50" length="18.58" shape="1368.50,-14.40 1374.63,-14.22 1379.48,-13.98 1383.44,-14.17 1386.90,-15.24"/>
    </edge>
    <edge id=":J2_1" function="internal">
        <lane id=":J2_1_0" index="0" speed="25.00" length="18.60" shape="1368.50,-11.20 1387.10,-11.20"/>
        <lane id=":J2_1_1" index="1" speed="25.00" length="18.60" shape="1368.50,-8.00 1387.10,-8.00"/>
        <lane id=":J2_1_2" index="2" speed="25.00" length="18.60" shape="1368.50,-4.80 1387.10,-4.80"/>
        <lane id=":J2_1_3" index="3" speed="25.00" length="18.60" shape="1368.50,-1.60 1387.10,-1.60"/>
    </edge>
    <edge id=":J3_0" function="internal">
        <lane id=":J3_0_0" index="0" speed="22.50" length="18.58" shape="2638.50,-14.40 2644.63,-14.22 2649.48,-13.98 2653.44,-14.17 2656.90,-15.24"/>
    </edge>
    <edge id=":J3_1" function="internal">
        <lane id=":J3_1_0" index="0" speed="25.00" length="18.60" shape="2638.50,-11.20 2657.10,-11.20"/>
        <lane id=":J3_1_1" index="1" speed="25.00" length="18.60" shape="2638.50,-8.00 2657.10,-8.00"/>
        <lane id=":J3_1_2" index="2" speed="25.00" length="18.60" shape="2638.50,-4.80 2657.10,-4.80"/>
        <lane id=":J3_1_3" index="3" speed="25.00" length="18.60" shape="2638.50,-1.60 2657.10,-1.60"/>
    </edge>
    <edge id=":J4_0" function="internal">
        <lane id=":J4_0_0" index="0" speed="22.50" length="18.58" shape="4598.50,-14.40 4604.63,-14.22 4609.48,-13.98 4613.44,-14.17 4616.90,-15.24"/>
    </edge>
    <edge id=":J4_1" function="internal">
        <lane id=":J4_1_0" index="0" speed="25.00" length="18.60" shape="4598.50,-11.20 4617.10,-11.20"/>
        <lane id=":J4_1_1" index="1" speed="25.00" length="18.60" shape="4598.50,-8.00 4617.10,-8.00"/>
        <lane id=":J4_1_2" index="2" speed="25.00" length="18.60" shape="4598.50,-4.80 4617.10,-4.80"/>
        <lane id=":J4_1_3" index="3" speed="25.00" length="18.60" shape="4598.50,-1.60 4617.10,-1.60"/>
    </edge>
    <edge id=":J5_0" function="internal">
        <lane id=":J5_0_0" index="0" speed="22.50" length="18.58" shape="6298.50,-14.40 6304.63,-14.22 6309.48,-13.98 6313.44,-14.17 6316.90,-15.24"/>
    </edge>
    <edge id=":J5_1" function="internal">
        <lane id=":J5_1_0" index="0" speed="25.00" length="18.60" shape="6298.50,-11.20 6317.10,-11.20"/>
        <lane id=":J5_1_1" index="1" speed="25.00" length="18.60" shape="6298.50,-8.00 6317.10,-8.00"/>
        <lane id=":J5_1_2" index="2" speed="25.00" length="18.60" shape="6298.50,-4.80 6317.10,-4.80"/>
        <lane id=":J5_1_3" index="3" speed="25.00" length="18.60" shape="6298.50,-1.60 6317.10,-1.60"/>
    </edge>
    <edge id=":J6_0" function="internal">
        <lane id=":J6_0_0" index="0" speed="22.50" length="18.58" shape="7818.50,-14.40 7824.63,-14.22 7829.48,-13.98 7833.44,-14.17 7836.90,-15.24"/>
    </edge>
    <edge id=":J6_1" function="internal">
        <lane id=":J6_1_0" index="0" speed="25.00" length="18.60" shape="7818.50,-11.20 7837.10,-11.20"/>
        <lane id=":J6_1_1" index="1" speed="25.00" length="18.60" shape="7818.50,-8.00 7837.10,-8.00"/>
        <lane id=":J6_1_2" index="2" speed="25.00" length="18.60" shape="7818.50,-4.80 7837.10,-4.80"/>
        <lane id=":J6_1_3" index="3" speed="25.00" length="18.60" shape="7818.50,-1.60 7837.10,-1.60"/>
    </edge>
    <edge id=":Ri1_0" function="internal">
        <lane id=":Ri1_0_0" index="0" speed="22.60" length="18.58" shape="513.10,-15.24 516.56,-14.17 520.52,-13.98 525.37,-14.22 531.50,-14.40"/>
    </edge>
    <edge id=":Ri1_1" function="internal">
        <lane id=":Ri1_1_0" index="0" speed="25.00" length="18.60" shape="512.90,-11.20 531.50,-11.20"/>
        <lane id=":Ri1_1_1" index="1" speed="25.00" length="18.60" shape="512.90,-8.00 531.50,-8.00"/>
        <lane id=":Ri1_1_2" index="2" speed="25.00" length="18.60" shape="512.90,-4.80 531.50,-4.80"/>
        <lane id=":Ri1_1_3" index="3" speed="25.00" length="18.60" shape="512.90,-1.60 531.50,-1.60"/>
    </edge>
    <edge id=":Ri2_0" function="internal">
        <lane id=":Ri2_0_0" index="0" speed="22.60" length="18.58" shape="1903.10,-15.24 1906.56,-14.17 1910.52,-13.98 1915.37,-14.22 1921.50,-14.40"/>
    </edge>
    <edge id=":Ri2_1" function="internal">
        <lane id=":Ri2_1_0" index="0" speed="25.00" length="18.60" shape="1902.90,-11.20 1921.50,-11.20"/>
        <lane id=":Ri2_1_1" index="1" speed="25.00" length="18.60" shape="1902.90,-8.00 1921.50,-8.00"/>
        <lane id=":Ri2_1_2" index="2" speed="25.00" length="18.60" shape="1902.90,-4.80 1921.50,-4.80"/>
        <lane id=":Ri2_1_3" index="3" speed="25.00" length="18.60" shape="1902.90,-1.60 1921.50,-1.60"/>
    </edge>
    <edge id=":Ri3_0" function="internal">
        <lane id=":Ri3_0_0" index="0" speed="22.60" length="18.58" shape="3473.10,-15.24 3476.56,-14.17 3480.52,-13.98 3485.37,-14.22 3491.50,-14.40"/>
    </edge>
    <edge id=":Ri3_1" function="internal">
        <lane id=":Ri3_1_0" index="0" speed="25.00" length="18.60" shape="3472.90,-11.20 3491.50,-11.20"/>
        <lane id=":Ri3_1_1" index="1" speed="25.00" length="18.60" shape="3472.90,-8.00 3491.50,-8.00"/>
        <lane id=":Ri3_1_2" index="2" speed="25.00" length="18.60" shape="3472.90,-4.80 3491.50,-4.80"/>
        <lane id=":Ri3_1_3" index="3" speed="25.00" length="18.60" shape="3472.90,-1.60 3491.50,-1.60"/>
    </edge>
    <edge id=":Ri4_0" function="internal">
        <lane id=":Ri4_0_0" index="0" speed="22.60" length="18.58" shape="5473.10,-15.24 5476.56,-14.17 5480.52,-13.98 5485.37,-14.22 5491.50,-14.40"/>
    </edge>
    <edge id=":Ri4_1" function="internal">
        <lane id=":Ri4_1_0" index="0" speed="25.00" length="18.60" shape="5472.90,-11.20 5491.50,-11.20"/>
        <lane id=":Ri4_1_1" index="1" speed="25.00" length="18.60" shape="5472.90,-8.00 5491.50,-8.00"/>
        <lane id=":Ri4_1_2" index="2" speed="25.00" length="18.60" shape="5472.90,-4.80 5491.50,-4.80"/>
        <lane id=":Ri4_1_3" index="3" speed="25.00" length="18.60" shape="5472.90,-1.60 5491.50,-1.60"/>
    </edge>
    <edge id=":Ri5_0" function="internal">
        <lane id=":Ri5_0_0" index="0" speed="22.60" length="18.58" shape="6883.10,-15.24 6886.56,-14.17 6890.52,-13.98 6895.37,-14.22 6901.50,-14.40"/>
    </edge>
    <edge id=":Ri5_1" function="internal">
        <lane id=":Ri5_1_0" index="0" speed="25.00" length="18.60" shape="6882.90,-11.20 6901.50,-11.20"/>
        <lane id=":Ri5_1_1" index="1" speed="25.00" length="18.60" shape="6882.90,-8.00 6901.50,-8.00"/>
        <lane id=":Ri5_1_2" index="2" speed="25.00" length="18.60" shape="6882.90,-4.80 6901.50,-4.80"/>
        <lane id=":Ri5_1_3" index="3" speed="25.00" length="18.60" shape="6882.90,-1.60 6901.50,-1.60"/>
    </edge>
    <edge id=":Ro1_0" function="internal">
        <lane id=":Ro1_0_0" index="0" speed="25.00" length="8.16" shape="1286.00,-11.20 1288.46,-11.70 1290.00,-12.80 1291.54,-13.90 1294.00,-14.40"/>
        <lane id=":Ro1_0_1" index="1" speed="25.00" length="8.16" shape="1286.00,-11.20 1294.00,-11.20"/>
        <lane id=":Ro1_0_2" index="2" speed="25.00" length="8.16" shape="1286.00,-8.00 1294.00,-8.00"/>
        <lane id=":Ro1_0_3" index="3" speed="25.00" length="8.16" shape="1286.00,-4.80 1294.00,-4.80"/>
        <lane id=":Ro1_0_4" index="4" speed="25.00" length="8.16" shape="1286.00,-1.60 1294.00,-1.60"/>
    </edge>
    <edge id=":Ro2_0" function="internal">
        <lane id=":Ro2_0_0" index="0" speed="25.00" length="8.16" shape="2556.00,-11.20 2558.46,-11.70 2560.00,-12.80 2561.54,-13.90 2564.00,-14.40"/>
        <lane id=":Ro2_0_1" index="1" speed="25.00" length="8.16" shape="2556.00,-11.20 2564.00,-11.20"/>
        <lane id=":Ro2_0_2" index="2" speed="25.00" length="8.16" shape="2556.00,-8.00 2564.00,-8.00"/>
        <lane id=":Ro2_0_3" index="3" speed="25.00" length="8.16" shape="2556.00,-4.80 2564.00,-4.80"/>
        <lane id=":Ro2_0_4" index="4" speed="25.00" length="8.16" shape="2556.00,-1.60 2564.00,-1.60"/>
    </edge>
    <edge id=":Ro3_0" function="internal">
        <lane id=":Ro3_0_0" index="0" speed="25.00" length="8.16" shape="4516.00,-11.20 4518.46,-11.70 4520.00,-12.80 4521.54,-13.90 4524.00,-14.40"/>
        <lane id=":Ro3_0_1" index="1" speed="25.00" length="8.16" shape="4516.00,-11.20 4524.00,-11.20"/>
        <lane id=":Ro3_0_2" index="2" speed="25.00" length="8.16" shape="4516.00,-8.00 4524.00,-8.00"/>
        <lane id=":Ro3_0_3" index="3" speed="25.00" length="8.16" shape="4516.00,-4.80 4524.00,-4.80"/>
        <lane id=":Ro3_0_4" index="4" speed="25.00" length="8.16" shape="4516.00,-1.60 4524.00,-1.60"/>
    </edge>
    <edge id=":Ro4_0" function="internal">
        <lane id=":Ro4_0_0" index="0" speed="25.00" length="8.16" shape="6216.00,-11.20 6218.46,-11.70 6220.00,-12.80 6221.54,-13.90 6224.00,-14.40"/>
        <lane id=":Ro4_0_1" index="1" speed="25.00" length="8.16" shape="6216.00,-11.20 6224.00,-11.20"/>
        <lane id=":Ro4_0_2" index="2" speed="25.00" length="8.16" shape="6216.00,-8.00 6224.00,-8.00"/>
        <lane id=":Ro4_0_3" index="3" speed="25.00" length="8.16" shape="6216.00,-4.80 6224.00,-4.80"/>
        <lane id=":Ro4_0_4" index="4" speed="25.00" length="8.16" shape="6216.00,-1.60 6224.00,-1.60"/>
    </edge>
    <edge id=":Ro5_0" function="internal">
        <lane id=":Ro5_0_0" index="0" speed="25.00" length="8.16" shape="7736.00,-11.20 7738.46,-11.70 7740.00,-12.80 7741.54,-13.90 7744.00,-14.40"/>
        <lane id=":Ro5_0_1" index="1" speed="25.00" length="8.16" shape="7736.00,-11.20 7744.00,-11.20"/>
        <lane id=":Ro5_0_2" index="2" speed="25.00" length="8.16" shape="7736.00,-8.00 7744.00,-8.00"/>
        <lane id=":Ro5_0_3" index="3" speed="25.00" length="8.16" shape="7736.00,-4.80 7744.00,-4.80"/>
        <lane id=":Ro5_0_4" index="4" speed="25.00" length="8.16" shape="7736.00,-1.60 7744.00,-1.60"/>
    </edge>
    <edge id=":Seg1_0" function="internal">
        <lane id=":Seg1_0_0" index="0" speed="25.00" length="8.00" shape="606.00,-11.20 614.00,-11.20"/>
        <lane id=":Seg1_0_1" index="1" speed="25.00" length="8.00" shape="606.00,-8.00 614.00,-8.00"/>
        <lane id=":Seg1_0_2" index="2" speed="25.00" length="8.00" shape="606.00,-4.80 614.00,-4.80"/>
        <lane id=":Seg1_0_3" index="3" speed="25.00" length="8.00" shape="606.00,-1.60 614.00,-1.60"/>
    </edge>
    <edge id=":Seg2_0" function="internal">
        <lane id=":Seg2_0_0" index="0" speed="25.00" length="8.00" shape="1996.00,-11.20 2004.00,-11.20"/>
        <lane id=":Seg2_0_1" index="1" speed="25.00" length="8.00" shape="1996.00,-8.00 2004.00,-8.00"/>
        <lane id=":Seg2_0_2" index="2" speed="25.00" length="8.00" shape="1996.00,-4.80 2004.00,-4.80"/>
        <lane id=":Seg2_0_3" index="3" speed="25.00" length="8.00" shape="1996.00,-1.60 2004.00,-1.60"/>
    </edge>
    <edge id=":Seg3_0" function="internal">
        <lane id=":Seg3_0_0" index="0" speed="25.00" length="8.00" shape="3566.00,-11.20 3574.00,-11.20"/>
        <lane id=":Seg3_0_1" index="1" speed="25.00" length="8.00" shape="3566.00,-8.00 3574.00,-8.00"/>
        <lane id=":Seg3_0_2" index="2" speed="25.00" length="8.00" shape="3566.00,-4.80 3574.00,-4.80"/>
        <lane id=":Seg3_0_3" index="3" speed="25.00" length="8.00" shape="3566.00,-1.60 3574.00,-1.60"/>
    </edge>
    <edge id=":Seg4_0" function="internal">
        <lane id=":Seg4_0_0" index="0" speed="25.00" length="8.00" shape="5566.00,-11.20 5574.00,-11.20"/>
        <lane id=":Seg4_0_1" index="1" speed="25.00" length="8.00" shape="5566.00,-8.00 5574.00,-8.00"/>
        <lane id=":Seg4_0_2" index="2" speed="25.00" length="8.00" shape="5566.00,-4.80 5574.00,-4.80"/>
        <lane id=":Seg4_0_3" index="3" speed="25.00" length="8.00" shape="5566.00,-1.60 5574.00,-1.60"/>
    </edge>
    <edge id=":Seg5_0" function="internal">
        <lane id=":Seg5_0_0" index="0" speed="25.00" length="8.00" shape="6976.00,-11.20 6984.00,-11.20"/>
        <lane id=":Seg5_0_1" index="1" speed="25.00" length="8.00" shape="6976.00,-8.00 6984.00,-8.00"/>
        <lane id=":Seg5_0_2" index="2" speed="25.00" length="8.00" shape="6976.00,-4.80 6984.00,-4.80"/>
        <lane id=":Seg5_0_3" index="3" speed="25.00" length="8.00" shape="6976.00,-1.60 6984.00,-1.60"/>
    </edge>

    <edge id="E1" from="J1" to="Ri1" priority="-1">
        <lane id="E1_0" index="0" speed="25.00" length="512.90" shape="0.00,-11.20 512.90,-11.20"/>
        <lane id="E1_1" index="1" speed="25.00" length="512.90" shape="0.00,-8.00 512.90,-8.00"/>
        <lane id="E1_2" index="2" speed="25.00" length="512.90" shape="0.00,-4.80 512.90,-4.80"/>
        <lane id="E1_3" index="3" speed="25.00" length="512.90" shape="0.00,-1.60 512.90,-1.60"/>
    </edge>
    <edge id="E2" from="J2" to="Ri2" priority="-1">
        <lane id="E2_0" index="0" speed="25.00" length="515.80" shape="1387.10,-11.20 1902.90,-11.20"/>
        <lane id="E2_1" index="1" speed="25.00" length="515.80" shape="1387.10,-8.00 1902.90,-8.00"/>
        <lane id="E2_2" index="2" speed="25.00" length="515.80" shape="1387.10,-4.80 1902.90,-4.80"/>
        <lane id="E2_3" index="3" speed="25.00" length="515.80" shape="1387.10,-1.60 1902.90,-1.60"/>
    </edge>
    <edge id="E3" from="J3" to="Ri3" priority="-1">
        <lane id="E3_0" index="0" speed="25.00" length="815.80" shape="2657.10,-11.20 3472.90,-11.20"/>
        <lane id="E3_1" index="1" speed="25.00" length="815.80" shape="2657.10,-8.00 3472.90,-8.00"/>
        <lane id="E3_2" index="2" speed="25.00" length="815.80" shape="2657.10,-4.80 3472.90,-4.80"/>
        <lane id="E3_3" index="3" speed="25.00" length="815.80" shape="2657.10,-1.60 3472.90,-1.60"/>
    </edge>
    <edge id="E4" from="J4" to="Ri4" priority="-1">
        <lane id="E4_0" index="0" speed="25.00" length="855.80" shape="4617.10,-11.20 5472.90,-11.20"/>
        <lane id="E4_1" index="1" speed="25.00" length="855.80" shape="4617.10,-8.00 5472.90,-8.00"/>
        <lane id="E4_2" index="2" speed="25.00" length="855.80" shape="4617.10,-4.80 5472.90,-4.80"/>
        <lane id="E4_3" index="3" speed="25.00" length="855.80" shape="4617.10,-1.60 5472.90,-1.60"/>
    </edge>
    <edge id="E5" from="J5" to="Ri5" priority="-1">
        <lane id="E5_0" index="0" speed="25.00" length="565.80" shape="6317.10,-11.20 6882.90,-11.20"/>
        <lane id="E5_1" index="1" speed="25.00" length="565.80" shape="6317.10,-8.00 6882.90,-8.00"/>
        <lane id="E5_2" index="2" speed="25.00" length="565.80" shape="6317.10,-4.80 6882.90,-4.80"/>
        <lane id="E5_3" index="3" speed="25.00" length="565.80" shape="6317.10,-1.60 6882.90,-1.60"/>
    </edge>
    <edge id="E6" from="J6" to="J7" priority="-1">
        <lane id="E6_0" index="0" speed="25.00" length="662.90" shape="7837.10,-11.20 8500.00,-11.20"/>
        <lane id="E6_1" index="1" speed="25.00" length="662.90" shape="7837.10,-8.00 8500.00,-8.00"/>
        <lane id="E6_2" index="2" speed="25.00" length="662.90" shape="7837.10,-4.80 8500.00,-4.80"/>
        <lane id="E6_3" index="3" speed="25.00" length="662.90" shape="7837.10,-1.60 8500.00,-1.60"/>
    </edge>
    <edge id="Fi1" from="i1" to="Ri1" priority="-1">
        <lane id="Fi1_0" index="0" speed="25.00" length="304.53" shape="240.72,-151.43 513.10,-15.24"/>
    </edge>
    <edge id="Fi2" from="i2" to="Ri2" priority="-1">
        <lane id="Fi2_0" index="0" speed="25.00" length="304.53" shape="1630.72,-151.43 1903.10,-15.24"/>
    </edge>
    <edge id="Fi3" from="i3" to="Ri3" priority="-1">
        <lane id="Fi3_0" index="0" speed="25.00" length="304.53" shape="3200.72,-151.43 3473.10,-15.24"/>
    </edge>
    <edge id="Fi4" from="i4" to="Ri4" priority="-1">
        <lane id="Fi4_0" index="0" speed="25.00" length="304.53" shape="5200.72,-151.43 5473.10,-15.24"/>
    </edge>
    <edge id="Fi5" from="i5" to="Ri5" priority="-1">
        <lane id="Fi5_0" index="0" speed="25.00" length="304.53" shape="6610.72,-151.43 6883.10,-15.24"/>
    </edge>
    <edge id="Fo1" from="J2" to="o1" priority="-1">
        <lane id="Fo1_0" index="0" speed="20.00" length="80.93" shape="1386.90,-15.24 1459.28,-51.43"/>
    </edge>
    <edge id="Fo2" from="J3" to="o2" priority="-1">
        <lane id="Fo2_0" index="0" speed="20.00" length="80.93" shape="2656.90,-15.24 2729.28,-51.43"/>
    </edge>
    <edge id="Fo3" from="J4" to="o3" priority="-1">
        <lane id="Fo3_0" index="0" speed="20.00" length="80.93" shape="4616.90,-15.24 4689.28,-51.43"/>
    </edge>
    <edge id="Fo4" from="J5" to="o4" priority="-1">
        <lane id="Fo4_0" index="0" speed="20.00" length="80.93" shape="6316.90,-15.24 6389.28,-51.43"/>
    </edge>
    <edge id="Fo5" from="J6" to="o5" priority="-1">
        <lane id="Fo5_0" index="0" speed="20.00" length="80.93" shape="7836.90,-15.24 7909.28,-51.43"/>
    </edge>
    <edge id="Mi1" from="Ri1" to="Seg1" priority="-1">
        <lane id="Mi1_0" index="0" speed="25.00" length="74.50" acceleration="1" shape="531.50,-14.40 606.00,-14.40"/>
        <lane id="Mi1_1" index="1" speed="25.00" length="74.50" shape="531.50,-11.20 606.00,-11.20"/>
        <lane id="Mi1_2" index="2" speed="25.00" length="74.50" shape="531.50,-8.00 606.00,-8.00"/>
        <lane id="Mi1_3" index="3" speed="25.00" length="74.50" shape="531.50,-4.80 606.00,-4.80"/>
        <lane id="Mi1_4" index="4" speed="25.00" length="74.50" shape="531.50,-1.60 606.00,-1.60"/>
    </edge>
    <edge id="Mi2" from="Ri2" to="Seg2" priority="-1">
        <lane id="Mi2_0" index="0" speed="25.00" length="74.50" acceleration="1" shape="1921.50,-14.40 1996.00,-14.40"/>
        <lane id="Mi2_1" index="1" speed="25.00" length="74.50" shape="1921.50,-11.20 1996.00,-11.20"/>
        <lane id="Mi2_2" index="2" speed="25.00" length="74.50" shape="1921.50,-8.00 1996.00,-8.00"/>
        <lane id="Mi2_3" index="3" speed="25.00" length="74.50" shape="1921.50,-4.80 1996.00,-4.80"/>
        <lane id="Mi2_4" index="4" speed="25.00" length="74.50" shape="1921.50,-1.60 1996.00,-1.60"/>
    </edge>
    <edge id="Mi3" from="Ri3" to="Seg3" priority="-1">
        <lane id="Mi3_0" index="0" speed="25.00" length="74.50" acceleration="1" shape="3491.50,-14.40 3566.00,-14.40"/>
        <lane id="Mi3_1" index="1" speed="25.00" length="74.50" shape="3491.50,-11.20 3566.00,-11.20"/>
        <lane id="Mi3_2" index="2" speed="25.00" length="74.50" shape="3491.50,-8.00 3566.00,-8.00"/>
        <lane id="Mi3_3" index="3" speed="25.00" length="74.50" shape="3491.50,-4.80 3566.00,-4.80"/>
        <lane id="Mi3_4" index="4" speed="25.00" length="74.50" shape="3491.50,-1.60 3566.00,-1.60"/>
    </edge>
    <edge id="Mi4" from="Ri4" to="Seg4" priority="-1">
        <lane id="Mi4_0" index="0" speed="25.00" length="74.50" acceleration="1" shape="5491.50,-14.40 5566.00,-14.40"/>
        <lane id="Mi4_1" index="1" speed="25.00" length="74.50" shape="5491.50,-11.20 5566.00,-11.20"/>
        <lane id="Mi4_2" index="2" speed="25.00" length="74.50" shape="5491.50,-8.00 5566.00,-8.00"/>
        <lane id="Mi4_3" index="3" speed="25.00" length="74.50" shape="5491.50,-4.80 5566.00,-4.80"/>
        <lane id="Mi4_4" index="4" speed="25.00" length="74.50" shape="5491.50,-1.60 5566.00,-1.60"/>
    </edge>
    <edge id="Mi5" from="Ri5" to="Seg5" priority="-1">
        <lane id="Mi5_0" index="0" speed="25.00" length="74.50" acceleration="1" shape="6901.50,-14.40 6976.00,-14.40"/>
        <lane id="Mi5_1" index="1" speed="25.00" length="74.50" shape="6901.50,-11.20 6976.00,-11.20"/>
        <lane id="Mi5_2" index="2" speed="25.00" length="74.50" shape="6901.50,-8.00 6976.00,-8.00"/>
        <lane id="Mi5_3" index="3" speed="25.00" length="74.50" shape="6901.50,-4.80 6976.00,-4.80"/>
        <lane id="Mi5_4" index="4" speed="25.00" length="74.50" shape="6901.50,-1.60 6976.00,-1.60"/>
    </edge>
    <edge id="Mo1" from="Ro1" to="J2" priority="-1">
        <lane id="Mo1_0" index="0" speed="25.00" length="74.50" shape="1294.00,-14.40 1368.50,-14.40"/>
        <lane id="Mo1_1" index="1" speed="25.00" length="74.50" shape="1294.00,-11.20 1368.50,-11.20"/>
        <lane id="Mo1_2" index="2" speed="25.00" length="74.50" shape="1294.00,-8.00 1368.50,-8.00"/>
        <lane id="Mo1_3" index="3" speed="25.00" length="74.50" shape="1294.00,-4.80 1368.50,-4.80"/>
        <lane id="Mo1_4" index="4" speed="25.00" length="74.50" shape="1294.00,-1.60 1368.50,-1.60"/>
    </edge>
    <edge id="Mo2" from="Ro2" to="J3" priority="-1">
        <lane id="Mo2_0" index="0" speed="25.00" length="74.50" shape="2564.00,-14.40 2638.50,-14.40"/>
        <lane id="Mo2_1" index="1" speed="25.00" length="74.50" shape="2564.00,-11.20 2638.50,-11.20"/>
        <lane id="Mo2_2" index="2" speed="25.00" length="74.50" shape="2564.00,-8.00 2638.50,-8.00"/>
        <lane id="Mo2_3" index="3" speed="25.00" length="74.50" shape="2564.00,-4.80 2638.50,-4.80"/>
        <lane id="Mo2_4" index="4" speed="25.00" length="74.50" shape="2564.00,-1.60 2638.50,-1.60"/>
    </edge>
    <edge id="Mo3" from="Ro3" to="J4" priority="-1">
        <lane id="Mo3_0" index="0" speed="25.00" length="74.50" shape="4524.00,-14.40 4598.50,-14.40"/>
        <lane id="Mo3_1" index="1" speed="25.00" length="74.50" shape="4524.00,-11.20 4598.50,-11.20"/>
        <lane id="Mo3_2" index="2" speed="25.00" length="74.50" shape="4524.00,-8.00 4598.50,-8.00"/>
        <lane id="Mo3_3" index="3" speed="25.00" length="74.50" shape="4524.00,-4.80 4598.50,-4.80"/>
        <lane id="Mo3_4" index="4" speed="25.00" length="74.50" shape="4524.00,-1.60 4598.50,-1.60"/>
    </edge>
    <edge id="Mo4" from="Ro4" to="J5" priority="-1">
        <lane id="Mo4_0" index="0" speed="25.00" length="74.50" shape="6224.00,-14.40 6298.50,-14.40"/>
        <lane id="Mo4_1" index="1" speed="25.00" length="74.50" shape="6224.00,-11.20 6298.50,-11.20"/>
        <lane id="Mo4_2" index="2" speed="25.00" length="74.50" shape="6224.00,-8.00 6298.50,-8.00"/>
        <lane id="Mo4_3" index="3" speed="25.00" length="74.50" shape="6224.00,-4.80 6298.50,-4.80"/>
        <lane id="Mo4_4" index="4" speed="25.00" length="74.50" shape="6224.00,-1.60 6298.50,-1.60"/>
    </edge>
    <edge id="Mo5" from="Ro5" to="J6" priority="-1">
        <lane id="Mo5_0" index="0" speed="25.00" length="74.50" shape="7744.00,-14.40 7818.50,-14.40"/>
        <lane id="Mo5_1" index="1" speed="25.00" length="74.50" shape="7744.00,-11.20 7818.50,-11.20"/>
        <lane id="Mo5_2" index="2" speed="25.00" length="74.50" shape="7744.00,-8.00 7818.50,-8.00"/>
        <lane id="Mo5_3" index="3" speed="25.00" length="74.50" shape="7744.00,-4.80 7818.50,-4.80"/>
        <lane id="Mo5_4" index="4" speed="25.00" length="74.50" shape="7744.00,-1.60 7818.50,-1.60"/>
    </edge>
    <edge id="S1" from="Seg1" to="Ro1" priority="-1">
        <lane id="S1_0" index="0" speed="25.00" length="672.00" shape="614.00,-11.20 1286.00,-11.20"/>
        <lane id="S1_1" index="1" speed="25.00" length="672.00" shape="614.00,-8.00 1286.00,-8.00"/>
        <lane id="S1_2" index="2" speed="25.00" length="672.00" shape="614.00,-4.80 1286.00,-4.80"/>
        <lane id="S1_3" index="3" speed="25.00" length="672.00" shape="614.00,-1.60 1286.00,-1.60"/>
    </edge>
    <edge id="S2" from="Seg2" to="Ro2" priority="-1">
        <lane id="S2_0" index="0" speed="25.00" length="552.00" shape="2004.00,-11.20 2556.00,-11.20"/>
        <lane id="S2_1" index="1" speed="25.00" length="552.00" shape="2004.00,-8.00 2556.00,-8.00"/>
        <lane id="S2_2" index="2" speed="25.00" length="552.00" shape="2004.00,-4.80 2556.00,-4.80"/>
        <lane id="S2_3" index="3" speed="25.00" length="552.00" shape="2004.00,-1.60 2556.00,-1.60"/>
    </edge>
    <edge id="S3" from="Seg3" to="Ro3" priority="-1">
        <lane id="S3_0" index="0" speed="25.00" length="942.00" shape="3574.00,-11.20 4516.00,-11.20"/>
        <lane id="S3_1" index="1" speed="25.00" length="942.00" shape="3574.00,-8.00 4516.00,-8.00"/>
        <lane id="S3_2" index="2" speed="25.00" length="942.00" shape="3574.00,-4.80 4516.00,-4.80"/>
        <lane id="S3_3" index="3" speed="25.00" length="942.00" shape="3574.00,-1.60 4516.00,-1.60"/>
    </edge>
    <edge id="S4" from="Seg4" to="Ro4" priority="-1">
        <lane id="S4_0" index="0" speed="25.00" length="642.00" shape="5574.00,-11.20 6216.00,-11.20"/>
        <lane id="S4_1" index="1" speed="25.00" length="642.00" shape="5574.00,-8.00 6216.00,-8.00"/>
        <lane id="S4_2" index="2" speed="25.00" length="642.00" shape="5574.00,-4.80 6216.00,-4.80"/>
        <lane id="S4_3" index="3" speed="25.00" length="642.00" shape="5574.00,-1.60 6216.00,-1.60"/>
    </edge>
    <edge id="S5" from="Seg5" to="Ro5" priority="-1">
        <lane id="S5_0" index="0" speed="25.00" length="752.00" shape="6984.00,-11.20 7736.00,-11.20"/>
        <lane id="S5_1" index="1" speed="25.00" length="752.00" shape="6984.00,-8.00 7736.00,-8.00"/>
        <lane id="S5_2" index="2" speed="25.00" length="752.00" shape="6984.00,-4.80 7736.00,-4.80"/>
        <lane id="S5_3" index="3" speed="25.00" length="752.00" shape="6984.00,-1.60 7736.00,-1.60"/>
    </edge>

    <junction id="J1" type="dead_end" x="0.00" y="0.00" incLanes="" intLanes="" shape="0.00,0.00 0.00,-12.80"/>
    <junction id="J2" type="unregulated" x="1360.00" y="0.00" incLanes="Mo1_0 Mo1_1 Mo1_2 Mo1_3 Mo1_4" intLanes=":J2_0_0 :J2_1_0 :J2_1_1 :J2_1_2 :J2_1_3" shape="1387.10,0.00 1387.10,-12.80 1386.49,-12.91 1386.48,-13.05 1386.66,-13.25 1387.04,-13.50 1387.62,-13.81 1386.19,-16.67 1382.74,-15.25 1380.05,-14.74 1377.69,-14.85 1375.26,-15.29 1372.33,-15.77 1368.50,-16.00 1368.50,0.00"/>
    <junction id="J3" type="unregulated" x="2630.00" y="0.00" incLanes="Mo2_0 Mo2_1 Mo2_2 Mo2_3 Mo2_4" intLanes=":J3_0_0 :J3_1_0 :J3_1_1 :J3_1_2 :J3_1_3" shape="2657.10,0.00 2657.10,-12.80 2656.49,-12.91 2656.48,-13.05 2656.66,-13.25 2657.04,-13.50 2657.62,-13.81 2656.19,-16.67 2652.74,-15.25 2650.05,-14.74 2647.69,-14.85 2645.26,-15.29 2642.33,-15.77 2638.50,-16.00 2638.50,0.00"/>
    <junction id="J4" type="unregulated" x="4590.00" y="0.00" incLanes="Mo3_0 Mo3_1 Mo3_2 Mo3_3 Mo3_4" intLanes=":J4_0_0 :J4_1_0 :J4_1_1 :J4_1_2 :J4_1_3" shape="4617.10,0.00 4617.10,-12.80 4616.49,-12.91 4616.48,-13.05 4616.66,-13.25 4617.04,-13.50 4617.62,-13.81 4616.19,-16.67 4612.74,-15.25 4610.05,-14.74 4607.69,-14.85 4605.26,-15.29 4602.33,-15.77 4598.50,-16.00 4598.50,0.00"/>
    <junction id="J5" type="unregulated" x="6290.00" y="0.00" incLanes="Mo4_0 Mo4_1 Mo4_2 Mo4_3 Mo4_4" intLanes=":J5_0_0 :J5_1_0 :J5_1_1 :J5_1_2 :J5_1_3" shape="6317.10,0.00 6317.10,-12.80 6316.49,-12.91 6316.48,-13.05 6316.66,-13.25 6317.04,-13.50 6317.62,-13.81 6316.19,-16.67 6312.74,-15.25 6310.05,-14.74 6307.69,-14.85 6305.26,-15.29 6302.33,-15.77 6298.50,-16.00 6298.50,0.00"/>
    <junction id="J6" type="unregulated" x="7810.00" y="0.00" incLanes="Mo5_0 Mo5_1 Mo5_2 Mo5_3 Mo5_4" intLanes=":J6_0_0 :J6_1_0 :J6_1_1 :J6_1_2 :J6_1_3" shape="7837.10,0.00 7837.10,-12.80 7836.49,-12.91 7836.48,-13.05 7836.66,-13.25 7837.04,-13.50 7837.62,-13.81 7836.19,-16.67 7832.74,-15.25 7830.05,-14.74 7827.69,-14.85 7825.26,-15.29 7822.33,-15.77 7818.50,-16.00 7818.50,0.00"/>
    <junction id="J7" type="dead_end" x="8500.00" y="0.00" incLanes="E6_0 E6_1 E6_2 E6_3" intLanes="" shape="8500.00,-12.80 8500.00,0.00"/>
    <junction id="Ri1" type="unregulated" x="540.00" y="0.00" incLanes="Fi1_0 E1_0 E1_1 E1_2 E1_3" intLanes=":Ri1_0_0 :Ri1_1_0 :Ri1_1_1 :Ri1_1_2 :Ri1_1_3" shape="531.50,0.00 531.50,-16.00 527.67,-15.77 524.74,-15.29 522.31,-14.85 519.95,-14.74 517.26,-15.25 513.81,-16.67 512.38,-13.81 513.34,-13.25 513.52,-13.05 513.51,-12.91 513.30,-12.83 512.90,-12.80 512.90,0.00"/>
    <junction id="Ri2" type="unregulated" x="1930.00" y="0.00" incLanes="Fi2_0 E2_0 E2_1 E2_2 E2_3" intLanes=":Ri2_0_0 :Ri2_1_0 :Ri2_1_1 :Ri2_1_2 :Ri2_1_3" shape="1921.50,0.00 1921.50,-16.00 1917.67,-15.77 1914.74,-15.29 1912.31,-14.85 1909.95,-14.74 1907.26,-15.25 1903.81,-16.67 1902.38,-13.81 1903.34,-13.25 1903.52,-13.05 1903.51,-12.91 1903.30,-12.83 1902.90,-12.80 1902.90,0.00"/>
    <junction id="Ri3" type="unregulated" x="3500.00" y="0.00" incLanes="Fi3_0 E3_0 E3_1 E3_2 E3_3" intLanes=":Ri3_0_0 :Ri3_1_0 :Ri3_1_1 :Ri3_1_2 :Ri3_1_3" shape="3491.50,0.00 3491.50,-16.00 3487.67,-15.77 3484.74,-15.29 3482.31,-14.85 3479.95,-14.74 3477.26,-15.25 3473.81,-16.67 3472.38,-13.81 3473.34,-13.25 3473.52,-13.05 3473.51,-12.91 3473.30,-12.83 3472.90,-12.80 3472.90,0.00"/>